*Material, name=DOMEX_S355
*Density
7.800000e-09
*Elastic
210000,3.000000e-01
*Plastic
   355,     0
   355,1.000000e-03
   355,2.000000e-03
   355,3.000000e-03
   355,4.000000e-03
   355,5.000000e-03
   355,6.000000e-03
   355,7.000000e-03
   355,8.000000e-03
   355,9.000000e-03
   355,1.000000e-02
   355,1.100000e-02
   355,1.200000e-02
   355,1.300000e-02
   355,1.400000e-02
   355,1.500000e-02
   355,1.600000e-02
   355,1.700000e-02
   355,1.800000e-02
   355,1.900000e-02
** ... 981 like lines cut
*Damage Initiation, criterion=DUCTILE
  1000,-6.700000e-01
1.573085e+01,-3.300000e-01
4.846705e+00,-3.200000e-01
3.020708e+00,-3.100000e-01
2.238025e+00,-3.000000e-01
1.796833e+00,-2.900000e-01
1.511421e+00,-2.800000e-01
1.310661e+00,-2.700000e-01
1.161239e+00,-2.600000e-01
1.045401e+00,-2.500000e-01
9.527887e-01,-2.400000e-01
8.769370e-01,-2.300000e-01
8.135952e-01,-2.200000e-01
7.598497e-01,-2.100000e-01
7.136341e-01,-2.000000e-01
6.734407e-01,-1.900000e-01
6.381430e-01,-1.800000e-01
6.068814e-01,-1.700000e-01
5.789884e-01,-1.600000e-01
5.539377e-01,-1.500000e-01
** ... 81 like lines cut
*Damage Evolution, type=DISPLACEMENT
1.000000e-03,
