*Material, name=DOMEX_S355
*Density
7.800000e-09
*Elastic
210000,3.000000e-01
*Plastic
   404,     0
   404,1.000000e-03
   404,2.000000e-03
   404,3.000000e-03
   404,4.000000e-03
   404,5.000000e-03
   404,6.000000e-03
   404,7.000000e-03
   404,8.000000e-03
   404,9.000000e-03
   404,1.000000e-02
   404,1.100000e-02
   404,1.200000e-02
   404,1.300000e-02
   404,1.400000e-02
   404,1.500000e-02
   404,1.600000e-02
   404,1.700000e-02
   404,1.800000e-02
   404,1.900000e-02
** ... 981 like lines cut
*Damage Initiation, criterion=DUCTILE
  1000,-6.700000e-01
2.483819e+01,-3.300000e-01
7.652692e+00,-3.200000e-01
4.769539e+00,-3.100000e-01
3.533724e+00,-3.000000e-01
2.837104e+00,-2.900000e-01
2.386453e+00,-2.800000e-01
2.069464e+00,-2.700000e-01
1.833535e+00,-2.600000e-01
1.650633e+00,-2.500000e-01
1.504403e+00,-2.400000e-01
1.384637e+00,-2.300000e-01
1.284624e+00,-2.200000e-01
1.199763e+00,-2.100000e-01
1.126791e+00,-2.000000e-01
1.063327e+00,-1.900000e-01
1.007594e+00,-1.800000e-01
9.582337e-01,-1.700000e-01
9.141923e-01,-1.600000e-01
8.746385e-01,-1.500000e-01
** ... 81 like lines cut
*Damage Evolution, type=DISPLACEMENT
1.000000e-03,
